# Total Energy: -505.800042 eV
# Forces (eV/Å):
#   Atom 1:  0.0174   0.0219   0.0100
#   Atom 2:  0.0095   0.0125  -0.0685
#   Atom 3: -0.0183  -0.0697   0.0236
#   Atom 4:  0.0183   0.0697  -0.0236
#   Atom 5: -0.0174  -0.0219  -0.0100
#   Atom 6: -0.0095  -0.0125   0.0685
#   Atom 7:  0.0060  -0.0298   0.0679
#   Atom 8:  0.0315   0.0123  -0.0610
#   Atom 9: -0.0315  -0.0123   0.0610
#   Atom 10:  0.0330   0.0108   0.0243
#   Atom 11: -0.0265  -0.0248  -0.0093
#   Atom 12: -0.0060   0.0298  -0.0679
#   Atom 13:  0.0265   0.0248   0.0093
#   Atom 14: -0.0330  -0.0108  -0.0243
#   Atom 15: -0.0003  -0.0338   0.0449
#   Atom 16:  0.0023  -0.0160   0.0093
#   Atom 17: -0.0023   0.0160  -0.0093
#   Atom 18:  0.0160   0.0345  -0.0251
#   Atom 19: -0.0228   0.0405   0.0091
#   Atom 20: -0.0160  -0.0345   0.0251
#   Atom 21:  0.0003   0.0338  -0.0449
#   Atom 22:  0.0483  -0.1534   0.0081
#   Atom 23: -0.0567   0.0949   0.0270
#   Atom 24:  0.0652  -0.0065  -0.0768
#   Atom 25: -0.0483   0.1534  -0.0081
#   Atom 26:  0.0228  -0.0405  -0.0091
#   Atom 27: -0.0652   0.0065   0.0768
#   Atom 28:  0.0567  -0.0949  -0.0270
#   Atom 29:  0.0436   0.0184  -0.0061
#   Atom 30:  0.0126   0.0682  -0.0125
#   Atom 31: -0.0034   0.0565   0.0683
#   Atom 32:  0.0034  -0.0565  -0.0683
#   Atom 33: -0.0076  -0.0876   0.0616
#   Atom 34: -0.0205  -0.0326  -0.0214
#   Atom 35: -0.0126  -0.0682   0.0125
#   Atom 36:  0.0205   0.0326   0.0214
#   Atom 37: -0.0436  -0.0184   0.0061
#   Atom 38: -0.0102  -0.0125  -0.0104
#   Atom 39: -0.0522  -0.0149   0.0299
#   Atom 40:  0.0076   0.0876  -0.0616
#   Atom 41:  0.0522   0.0149  -0.0299
#   Atom 42:  0.0152  -0.0251  -0.0584
#   Atom 43:  0.0203  -0.0243  -0.0208
#   Atom 44:  0.0102   0.0125   0.0104
#   Atom 45: -0.0203   0.0243   0.0208
#   Atom 46:  0.0240   0.0112  -0.0020
#   Atom 47:  0.0131   0.0537   0.0072
#   Atom 48: -0.0152   0.0251   0.0584
#   Atom 49: -0.0131  -0.0537  -0.0072
#   Atom 50: -0.0240  -0.0112   0.0020
#   Atom 51: -0.0028   0.0518  -0.1049
#   Atom 52: -0.0005  -0.0193  -0.0779
#   Atom 53: -0.0530   0.0891  -0.0028
#   Atom 54: -0.0185   0.0112   0.0298
#   Atom 55:  0.0185  -0.0112  -0.0298
#   Atom 56: -0.0130   0.0127  -0.0015
#   Atom 57: -0.0103  -0.0054   0.0780
#   Atom 58:  0.0005   0.0193   0.0779
#   Atom 59:  0.0028  -0.0518   0.1049
#   Atom 60:  0.0576  -0.0460  -0.1155
#   Atom 61:  0.0673  -0.0683  -0.0157
#   Atom 62:  0.0130  -0.0127   0.0015
#   Atom 63:  0.0530  -0.0891   0.0028
#   Atom 64: -0.0312   0.0002   0.1569
#   Atom 65:  0.0319   0.0257  -0.0956
#   Atom 66: -0.0576   0.0460   0.1155
#   Atom 67:  0.0103   0.0054  -0.0780
#   Atom 68: -0.0123   0.0946  -0.0357
#   Atom 69:  0.0312  -0.0002  -0.1569
#   Atom 70: -0.0673   0.0683   0.0157
#   Atom 71:  0.0123  -0.0946   0.0357
#   Atom 72: -0.0319  -0.0257   0.0956
# Stress Tensor (eV/Å³):
#   -1.7273  -1.4032  -0.5040
#   -1.4032  -0.9603  0.6144
#   -0.5040  0.6144  -1.5302

data_image0
_chemical_formula_structural       H28C44
_chemical_formula_sum              "H28 C44"
_cell_length_a       7.68508
_cell_length_b       6.05522
_cell_length_c       15.9431
_cell_angle_alpha    102.138
_cell_angle_beta     112.42
_cell_angle_gamma    85.0676

_space_group_name_H-M_alt    "P 1"
_space_group_IT_number       1

loop_
  _space_group_symop_operation_xyz
  'x, y, z'

loop_
  _atom_site_type_symbol
  _atom_site_label
  _atom_site_symmetry_multiplicity
  _atom_site_fract_x
  _atom_site_fract_y
  _atom_site_fract_z
  _atom_site_occupancy
  H   H1        1.0  0.83461  0.62688  0.93757  1.0000
  H   H2        1.0  0.79556  0.66016  0.78049  1.0000
  H   H3        1.0  0.87281  0.59786  0.09473  1.0000
  H   H4        1.0  0.12719  0.40214  0.90527  1.0000
  H   H5        1.0  0.16539  0.37312  0.06243  1.0000
  H   H6        1.0  0.20444  0.33984  0.21951  1.0000
  H   H7        1.0  0.75344  0.69512  0.62090  1.0000
  H   H8        1.0  0.91079  0.56520  0.25398  1.0000
  H   H9        1.0  0.08921  0.43480  0.74602  1.0000
  H   H10       1.0  0.80079  0.90966  0.51602  1.0000
  H   H11       1.0  0.02873  0.72087  0.42092  1.0000
  H   H12       1.0  0.24656  0.30488  0.37910  1.0000
  H   H13       1.0  0.97127  0.27913  0.57908  1.0000
  H   H14       1.0  0.19921  0.09034  0.48398  1.0000
  H   H15       1.0  0.32155  0.90465  0.85848  1.0000
  H   H16       1.0  0.36080  0.88863  0.01798  1.0000
  H   H17       1.0  0.63920  0.11137  0.98202  1.0000
  H   H18       1.0  0.59935  0.12819  0.82317  1.0000
  H   H19       1.0  0.27575  0.91813  0.69801  1.0000
  H   H20       1.0  0.40065  0.87181  0.17683  1.0000
  H   H21       1.0  0.67845  0.09535  0.14152  1.0000
  H   H22       1.0  0.55737  0.14464  0.66287  1.0000
  H   H23       1.0  0.30993  0.73161  0.55017  1.0000
  H   H24       1.0  0.44898  0.34815  0.53398  1.0000
  H   H25       1.0  0.44263  0.85536  0.33713  1.0000
  H   H26       1.0  0.72425  0.08187  0.30199  1.0000
  H   H27       1.0  0.55102  0.65185  0.46602  1.0000
  H   H28       1.0  0.69007  0.26839  0.44983  1.0000
  C   C1        1.0  0.90658  0.78922  0.96467  1.0000
  C   C2        1.0  0.93240  0.90702  0.90331  1.0000
  C   C3        1.0  0.97176  0.87556  0.06018  1.0000
  C   C4        1.0  0.02824  0.12444  0.93982  1.0000
  C   C5        1.0  0.86731  0.82252  0.80694  1.0000
  C   C6        1.0  0.94609  0.75887  0.12252  1.0000
  C   C7        1.0  0.06760  0.09298  0.09669  1.0000
  C   C8        1.0  0.05391  0.24113  0.87748  1.0000
  C   C9        1.0  0.09342  0.21078  0.03533  1.0000
  C   C10       1.0  0.89318  0.93992  0.74623  1.0000
  C   C11       1.0  0.01055  0.84396  0.21736  1.0000
  C   C12       1.0  0.13269  0.17748  0.19306  1.0000
  C   C13       1.0  0.98945  0.15604  0.78264  1.0000
  C   C14       1.0  0.82675  0.85646  0.64850  1.0000
  C   C15       1.0  0.98422  0.72621  0.28074  1.0000
  C   C16       1.0  0.10682  0.06008  0.25377  1.0000
  C   C17       1.0  0.01578  0.27379  0.71926  1.0000
  C   C18       1.0  0.85321  0.97633  0.59030  1.0000
  C   C19       1.0  0.05033  0.81277  0.37380  1.0000
  C   C20       1.0  0.17325  0.14354  0.35150  1.0000
  C   C21       1.0  0.94967  0.18723  0.62620  1.0000
  C   C22       1.0  0.14679  0.02367  0.40970  1.0000
  C   C23       1.0  0.44172  0.62214  0.92649  1.0000
  C   C24       1.0  0.52244  0.39597  0.91607  1.0000
  C   C25       1.0  0.38349  0.73588  0.85126  1.0000
  C   C26       1.0  0.42151  0.71950  0.01013  1.0000
  C   C27       1.0  0.57849  0.28050  0.98987  1.0000
  C   C28       1.0  0.54003  0.29808  0.83112  1.0000
  C   C29       1.0  0.39999  0.63727  0.76749  1.0000
  C   C30       1.0  0.47756  0.60403  0.08393  1.0000
  C   C31       1.0  0.55828  0.37786  0.07351  1.0000
  C   C32       1.0  0.48120  0.41196  0.75751  1.0000
  C   C33       1.0  0.33740  0.74990  0.69045  1.0000
  C   C34       1.0  0.45997  0.70192  0.16888  1.0000
  C   C35       1.0  0.61651  0.26412  0.14874  1.0000
  C   C36       1.0  0.49626  0.31236  0.67080  1.0000
  C   C37       1.0  0.35554  0.64706  0.60904  1.0000
  C   C38       1.0  0.51880  0.58804  0.24249  1.0000
  C   C39       1.0  0.60001  0.36273  0.23251  1.0000
  C   C40       1.0  0.43595  0.42635  0.59928  1.0000
  C   C41       1.0  0.50374  0.68764  0.32920  1.0000
  C   C42       1.0  0.66260  0.25010  0.30955  1.0000
  C   C43       1.0  0.56405  0.57365  0.40072  1.0000
  C   C44       1.0  0.64446  0.35294  0.39096  1.0000
